LTspice 24.0.12 for Windows
Circuit: * C:\Users\loict\Nextcloud\Portable UCL\Master\LELEC2811 Sensors\Github\MP3\spice\charge_amplifier.asc
Start Time: Tue Nov 19 17:51:44 2024
solver = Normal
Maximum thread count: 12
tnom = 27
temp = 27
method = modified trap
i1: Removing PWL point (0.121,-1.346e-09)
i1: Removing PWL point (0.1225,-1.347e-09)
i1: Removing PWL point (0.124,-1.348e-09)
i1: Removing PWL point (0.1275,-1.347e-09)
i1: Removing PWL point (0.129,-1.346e-09)
i1: Removing PWL point (0.371,1.346e-09)
i1: Removing PWL point (0.3725,1.347e-09)
i1: Removing PWL point (0.374,1.348e-09)
i1: Removing PWL point (0.3775,1.347e-09)
i1: Removing PWL point (0.379,1.346e-09)
i1: Removing PWL point (0.621,-1.346e-09)
i1: Removing PWL point (0.6225,-1.347e-09)
i1: Removing PWL point (0.624,-1.348e-09)
i1: Removing PWL point (0.6275,-1.347e-09)
i1: Removing PWL point (0.629,-1.346e-09)
i1: Removing PWL point (0.871,1.346e-09)
i1: Removing PWL point (0.8725,1.347e-09)
i1: Removing PWL point (0.874,1.348e-09)
i1: Removing PWL point (0.8775,1.347e-09)
i1: Removing PWL point (0.879,1.346e-09)
i1: Removing PWL point (1.125,-1.348e-09)
i1: Removing PWL point (1.375,1.348e-09)
i1: Removing PWL point (1.625,-1.348e-09)
i1: Removing PWL point (1.875,1.348e-09)
i1: Removing PWL point (2.125,-1.348e-09)
i1: Removing PWL point (2.375,1.348e-09)
i1: Removing PWL point (2.625,-1.348e-09)
i1: Removing PWL point (2.875,1.348e-09)
i1: Removing PWL point (3.125,-1.348e-09)
i1: Removing PWL point (3.375,1.348e-09)
i1: Removing PWL point (3.625,-1.348e-09)
i1: Removing PWL point (3.875,1.348e-09)
i1: Removing PWL point (4.125,-1.348e-09)
i1: Removing PWL point (4.375,1.348e-09)
i1: Removing PWL point (4.625,-1.348e-09)
i1: Removing PWL point (4.875,1.348e-09)
i1: Removing PWL point (5.125,-1.348e-09)
i1: Removing PWL point (5.375,1.348e-09)
i1: Removing PWL point (5.625,-1.348e-09)
i1: Removing PWL point (5.875,1.348e-09)
i1: Removing PWL point (6.125,-1.348e-09)
i1: Removing PWL point (6.375,1.348e-09)
i1: Removing PWL point (6.625,-1.348e-09)
i1: Removing PWL point (6.875,1.348e-09)
i1: Removing PWL point (7.125,-1.348e-09)
i1: Removing PWL point (7.375,1.348e-09)
i1: Removing PWL point (7.625,-1.348e-09)
i1: Removing PWL point (7.875,1.348e-09)
i1: Removing PWL point (8.125,-1.348e-09)
i1: Removing PWL point (8.375,1.348e-09)
i1: Removing PWL point (8.625,-1.348e-09)
i1: Removing PWL point (8.875,1.348e-09)
i1: Removing PWL point (9.125,-1.348e-09)
i1: Removing PWL point (9.375,1.348e-09)
i1: Removing PWL point (9.625,-1.348e-09)
i1: Removing PWL point (9.875,1.348e-09)
Direct Newton iteration for .op point succeeded.
Total elapsed time: 0.186 seconds.

