LTspice 24.0.12 for Windows
Circuit: * C:\Users\loict\Nextcloud\Portable UCL\Master\LELEC2811 Sensors\Github\MP2\Draft1.asc
Start Time: Tue Nov 12 18:06:39 2024
solver = Normal
Maximum thread count: 12



Direct Newton iteration for .op point succeeded.
.step hu=40



.step hu=50



.step hu=60



.step hu=70



.step hu=80



.step hu=90
tnom = 27
temp = 27
method = modified trap
.step hu=100
Total elapsed time: 2.336 seconds.

