LTspice 24.0.12 for Windows
Circuit: * C:\Users\loict\Nextcloud\Portable UCL\Master\LELEC2811 Sensors\Github\P2 - LTSpice hands-on-20241025\Shematic1.asc
Start Time: Mon Nov  4 21:04:27 2024
solver = Normal
Maximum thread count: 12



Direct Newton iteration for .op point succeeded.

















































































































































































tnom = 27
temp = 27
method = modified trap
Total elapsed time: 1.017 seconds.

