LTspice 24.0.12 for Windows
Circuit: * C:\Users\loict\Nextcloud\Portable UCL\Master\LELEC2811 Sensors\Github\Selection Components\conditioning_chain_student.asc
Start Time: Fri Nov 22 16:10:30 2024
Error on line 21 : rs n001 0 0.3*r0
	 Unknown parameter "*r0"
solver = Normal
Maximum thread count: 12
tnom = 27
temp = 27
method = modified trap
No AC stimulus found:
     Set the value of a current or voltage source to "AC 1."
     to make it behave as a signal generator for AC analysis.
Direct Newton iteration failed to find .op point.  (Use ".option noopiter" to skip.)
Starting Gmin stepping
Gmin = 10
Gmin = 1.07374
Gmin = 0.115292
Gmin = 0.0123794
Gmin = 0.00132923
Gmin = 0.000142725
Gmin = 1.5325e-05
Gmin = 1.6455e-06
Gmin = 1.76685e-07
Gmin = 1.89714e-08
Gmin = 2.03704e-09
Gmin = 2.18725e-10
Gmin = 2.34854e-11
Gmin = 2.52173e-12
Gmin = 2.70769e-13
Gmin = 0
Gmin stepping succeeded in finding the operating point.

Total elapsed time: 0.118 seconds.

