LTspice 24.0.12 for Windows
Circuit: * C:\Users\barra\Documents\Unif\LELEC2811-Group1\Selection Components\conditioning_chain_student.asc
Start Time: Fri Nov 22 21:18:14 2024
solver = Normal
Maximum thread count: 20



Direct Newton iteration failed to find .op point.  (Use ".option noopiter" to skip.)
Starting Gmin stepping
Gmin = 10
Gmin = 1.07374
Gmin = 0.115292
Gmin = 0.0123794
Gmin = 0.00132923
Gmin = 0.000142725
Gmin = 1.5325e-05
Gmin = 1.6455e-06
Gmin = 1.76685e-07
Gmin = 1.89714e-08
Gmin = 2.03704e-09
Gmin = 2.18725e-10
Gmin = 2.34854e-11
Gmin = 2.52173e-12
Gmin = 2.70769e-13
Gmin = 0
Gmin stepping succeeded in finding the operating point.

.step ppm=1



.step ppm=11



.step ppm=21



.step ppm=31



.step ppm=41



.step ppm=51



.step ppm=61



.step ppm=71



.step ppm=81



.step ppm=91



.step ppm=101



.step ppm=111



.step ppm=121



.step ppm=131



.step ppm=141



.step ppm=151



.step ppm=161



.step ppm=171



.step ppm=181



.step ppm=191



.step ppm=201



.step ppm=211



.step ppm=221



.step ppm=231



.step ppm=241



.step ppm=251



.step ppm=261



.step ppm=271



.step ppm=281



.step ppm=291



.step ppm=301



.step ppm=311



.step ppm=321



.step ppm=331



.step ppm=341



.step ppm=351



.step ppm=361



.step ppm=371



.step ppm=381



.step ppm=391



.step ppm=401



.step ppm=411



.step ppm=421



.step ppm=431



.step ppm=441



.step ppm=451



.step ppm=461



.step ppm=471



.step ppm=481



.step ppm=491



.step ppm=501



.step ppm=511



.step ppm=521



.step ppm=531



.step ppm=541



.step ppm=551



.step ppm=561



.step ppm=571



.step ppm=581



.step ppm=591



.step ppm=601



.step ppm=611



.step ppm=621



.step ppm=631



.step ppm=641



.step ppm=651



.step ppm=661



.step ppm=671



.step ppm=681



.step ppm=691



.step ppm=701



.step ppm=711



.step ppm=721



.step ppm=731



.step ppm=741



.step ppm=751



.step ppm=761



.step ppm=771



.step ppm=781



.step ppm=791



.step ppm=801



.step ppm=811



.step ppm=821



.step ppm=831



.step ppm=841



.step ppm=851



.step ppm=861



.step ppm=871



.step ppm=881



.step ppm=891



.step ppm=901



.step ppm=911



.step ppm=921



.step ppm=931



.step ppm=941



.step ppm=951



.step ppm=961



.step ppm=971



.step ppm=981



.step ppm=991
tnom = 27
temp = 27
method = modified trap
.step ppm=1000
Total elapsed time: 5.489 seconds.

