LTspice 24.0.12 for Windows
Circuit: * C:\Users\loict\Nextcloud\Portable UCL\Master\LELEC2811 Sensors\Github\Selection Components\conditioning_chain_student.asc
Start Time: Fri Dec 13 15:35:30 2024
solver = Normal
Maximum thread count: 12



Direct Newton iteration failed to find .op point.  (Use ".option noopiter" to skip.)
Starting Gmin stepping
Increasing initial diagonal Gmin to 100
Increasing initial diagonal Gmin to 1000
Increasing initial diagonal Gmin to 10000
Gmin = 10000
Gmin = 1073.74
Gmin = 115.292
Gmin = 12.3794
Gmin = 1.32923
Gmin = 0.142725
Gmin = 0.015325
Gmin = 0.0016455
Gmin = 0.000176685
Gmin = 1.89714e-05
Gmin = 2.03704e-06
Gmin = 2.18725e-07
Gmin = 2.34854e-08
Gmin = 2.52173e-09
Gmin = 2.70769e-10
Gmin = 2.90735e-11
Gmin = 3.12175e-12
Gmin = 3.35195e-13
Gmin = 0
Gmin stepping succeeded in finding the operating point.

.step ppm=1.2



.step ppm=6.2



.step ppm=11.2



.step ppm=16.2



.step ppm=21.2



.step ppm=26.2



.step ppm=31.2



.step ppm=36.2



.step ppm=41.2



.step ppm=46.2
tnom = 27
temp = 27
method = modified trap
.step ppm=50
Total elapsed time: 1.223 seconds.

